117
Properties=species:S:1:pos:R:3:initial_magmoms:R:1 pbc="F F F"
Pt      -5.78636839      -3.83312810       0.00000000       0.00000000
Pt      -3.83312810      -5.78636839      -0.00000000       0.00000000
Pt      -4.02583811      -4.02583811      -2.10453196       0.00000000
Pt      -4.02583811      -4.02583811       2.10453196       0.00000000
Pt      -5.78636839       0.00000000      -3.83312810       0.00000000
Pt      -4.02583811      -2.10453196      -4.02583811       0.00000000
Pt      -3.83312810      -0.00000000      -5.78636839       0.00000000
Pt      -5.86835324      -1.94248175      -1.94248175       0.00000000
Pt      -5.98892814       0.00000000       0.00000000       0.00000000
Pt      -3.88711825      -1.95756236       0.00000000       0.00000000
Pt      -3.88711825      -0.00000000      -1.95756236       0.00000000
Pt      -5.86835324      -1.94248175       1.94248175       0.00000000
Pt      -5.78636839       0.00000000       3.83312810       0.00000000
Pt      -4.02583811      -2.10453196       4.02583811       0.00000000
Pt      -3.88711825       0.00000000       1.95756236       0.00000000
Pt      -3.83312810      -0.00000000       5.78636839       0.00000000
Pt      -4.02583811       2.10453196      -4.02583811       0.00000000
Pt      -5.86835324       1.94248175      -1.94248175       0.00000000
Pt      -5.78636839       3.83312810       0.00000000       0.00000000
Pt      -3.88711825       1.95756236       0.00000000       0.00000000
Pt      -4.02583811       4.02583811      -2.10453196       0.00000000
Pt      -5.86835324       1.94248175       1.94248175       0.00000000
Pt      -4.02583811       2.10453196       4.02583811       0.00000000
Pt      -4.02583811       4.02583811       2.10453196       0.00000000
Pt      -3.83312810       5.78636839      -0.00000000       0.00000000
Pt      -2.10453196      -4.02583811      -4.02583811       0.00000000
Pt       0.00000000      -5.78636839      -3.83312810       0.00000000
Pt       0.00000000      -3.83312810      -5.78636839       0.00000000
Pt      -1.94248175      -5.86835324      -1.94248175       0.00000000
Pt      -1.95756236      -3.88711825      -0.00000000       0.00000000
Pt      -0.00000000      -5.98892814      -0.00000000       0.00000000
Pt       0.00000000      -3.88711825      -1.95756236       0.00000000
Pt      -1.94248175      -5.86835324       1.94248175       0.00000000
Pt      -2.10453196      -4.02583811       4.02583811       0.00000000
Pt      -0.00000000      -5.78636839       3.83312810       0.00000000
Pt      -0.00000000      -3.88711825       1.95756236       0.00000000
Pt       0.00000000      -3.83312810       5.78636839       0.00000000
Pt      -1.94248175      -1.94248175      -5.86835324       0.00000000
Pt      -1.95756236       0.00000000      -3.88711825       0.00000000
Pt       0.00000000      -1.95756236      -3.88711825       0.00000000
Pt       0.00000000       0.00000000      -5.98892814       0.00000000
Pt      -2.01516412      -2.01516412      -2.01516412       0.00000000
Pt      -1.96547193      -0.00000000       0.00000000       0.00000000
Pt       0.00000000      -1.96547193      -0.00000000       0.00000000
Pt       0.00000000       0.00000000      -1.96547193       0.00000000
Pt      -2.01516412      -2.01516412       2.01516412       0.00000000
Pt      -1.95756236      -0.00000000       3.88711825       0.00000000
Pt       0.00000000      -1.95756236       3.88711825       0.00000000
Pt       0.00000000      -0.00000000       1.96547193       0.00000000
Pt      -1.94248175      -1.94248175       5.86835324       0.00000000
Pt      -0.00000000       0.00000000       5.98892814       0.00000000
Pt      -1.94248175       1.94248175      -5.86835324       0.00000000
Pt      -2.10453196       4.02583811      -4.02583811       0.00000000
Pt      -0.00000000       1.95756236      -3.88711825       0.00000000
Pt      -0.00000000       3.83312810      -5.78636839       0.00000000
Pt      -2.01516412       2.01516412      -2.01516412       0.00000000
Pt      -1.95756236       3.88711825       0.00000000       0.00000000
Pt       0.00000000       1.96547193       0.00000000       0.00000000
Pt      -0.00000000       3.88711825      -1.95756236       0.00000000
Pt      -2.01516412       2.01516412       2.01516412       0.00000000
Pt      -2.10453196       4.02583811       4.02583811       0.00000000
Pt      -0.00000000       1.95756236       3.88711825       0.00000000
Pt       0.00000000       3.88711825       1.95756236       0.00000000
Pt      -1.94248175       1.94248175       5.86835324       0.00000000
Pt      -0.00000000       3.83312810       5.78636839       0.00000000
Pt      -0.00000000       5.78636839      -3.83312810       0.00000000
Pt      -1.94248175       5.86835324      -1.94248175       0.00000000
Pt       0.00000000       5.98892814       0.00000000       0.00000000
Pt      -1.94248175       5.86835324       1.94248175       0.00000000
Pt       0.00000000       5.78636839       3.83312810       0.00000000
Pt       2.10453196      -4.02583811      -4.02583811       0.00000000
Pt       1.94248175      -5.86835324      -1.94248175       0.00000000
Pt       1.95756236      -3.88711825      -0.00000000       0.00000000
Pt       3.83312810      -5.78636839       0.00000000       0.00000000
Pt       4.02583811      -4.02583811      -2.10453196       0.00000000
Pt       1.94248175      -5.86835324       1.94248175       0.00000000
Pt       2.10453196      -4.02583811       4.02583811       0.00000000
Pt       4.02583811      -4.02583811       2.10453196       0.00000000
Pt       1.94248175      -1.94248175      -5.86835324       0.00000000
Pt       1.95756236      -0.00000000      -3.88711825       0.00000000
Pt       4.02583811      -2.10453196      -4.02583811       0.00000000
Pt       3.83312810       0.00000000      -5.78636839       0.00000000
Pt       2.01516412      -2.01516412      -2.01516412       0.00000000
Pt       1.96547193      -0.00000000       0.00000000       0.00000000
Pt       3.88711825      -1.95756236       0.00000000       0.00000000
Pt       3.88711825      -0.00000000      -1.95756236       0.00000000
Pt       2.01516412      -2.01516412       2.01516412       0.00000000
Pt       1.95756236      -0.00000000       3.88711825       0.00000000
Pt       4.02583811      -2.10453196       4.02583811       0.00000000
Pt       3.88711825       0.00000000       1.95756236       0.00000000
Pt       1.94248175      -1.94248175       5.86835324       0.00000000
Pt       3.83312810       0.00000000       5.78636839       0.00000000
Pt       1.94248175       1.94248175      -5.86835324       0.00000000
Pt       2.10453196       4.02583811      -4.02583811       0.00000000
Pt       4.02583811       2.10453196      -4.02583811       0.00000000
Pt       2.01516412       2.01516412      -2.01516412       0.00000000
Pt       1.95756236       3.88711825      -0.00000000       0.00000000
Pt       3.88711825       1.95756236      -0.00000000       0.00000000
Pt       4.02583811       4.02583811      -2.10453196       0.00000000
Pt       2.01516412       2.01516412       2.01516412       0.00000000
Pt       2.10453196       4.02583811       4.02583811       0.00000000
Pt       4.02583811       2.10453196       4.02583811       0.00000000
Pt       4.02583811       4.02583811       2.10453196       0.00000000
Pt       1.94248175       1.94248175       5.86835324       0.00000000
Pt       1.94248175       5.86835324      -1.94248175       0.00000000
Pt       3.83312810       5.78636839      -0.00000000       0.00000000
Pt       1.94248175       5.86835324       1.94248175       0.00000000
Pt       5.78636839      -3.83312810      -0.00000000       0.00000000
Pt       5.78636839      -0.00000000      -3.83312810       0.00000000
Pt       5.86835324      -1.94248175      -1.94248175       0.00000000
Pt       5.98892814       0.00000000      -0.00000000       0.00000000
Pt       5.86835324      -1.94248175       1.94248175       0.00000000
Pt       5.78636839      -0.00000000       3.83312810       0.00000000
Pt       5.86835324       1.94248175      -1.94248175       0.00000000
Pt       5.78636839       3.83312810       0.00000000       0.00000000
Pt       5.86835324       1.94248175       1.94248175       0.00000000
H       -5.36174182      -5.36174182      -1.30739523       1.00000000
