55

Pt     -3.934162821500000     -1.910253251100000     -1.910253251100000
Pt     -1.910253251100000     -3.934162821500000     -1.910253251100000
Pt     -1.910253251100000     -1.910253251100000     -3.934162821500000
Pt     -3.807710938600000     -3.807710938600000      0.000000000000000
Pt     -3.934162821500000     -1.910253251100000      1.910253251100000
Pt     -1.910253251100000     -3.934162821500000      1.910253251100000
Pt     -1.928144733700000     -1.928144733700000      0.000000000000000
Pt     -1.910253251100000     -1.910253251100000      3.934162821500000
Pt     -3.807710938600000      0.000000000000000     -3.807710938600000
Pt     -3.934162821500000      1.910253251100000     -1.910253251100000
Pt     -1.928144733700000      0.000000000000000     -1.928144733700000
Pt     -1.910253251100000      1.910253251100000     -3.934162821500000
Pt     -4.137898499300000      0.000000000000000      0.000000000000000
Pt     -3.934162821500000      1.910253251100000      1.910253251100000
Pt     -1.928144733700000      0.000000000000000      1.928144733700000
Pt     -1.928144733700000      1.928144733700000      0.000000000000000
Pt     -3.807710938600000      0.000000000000000      3.807710938600000
Pt     -1.910253251100000      1.910253251100000      3.934162821500000
Pt     -1.910253251100000      3.934162821500000     -1.910253251100000
Pt     -3.807710938600000      3.807710938600000      0.000000000000000
Pt     -1.910253251100000      3.934162821500000      1.910253251100000
Pt      0.000000000000000     -3.807710938600000     -3.807710938600000
Pt      0.000000000000000     -1.928144733700000     -1.928144733700000
Pt      1.910253251100000     -3.934162821500000     -1.910253251100000
Pt      1.910253251100000     -1.910253251100000     -3.934162821500000
Pt      0.000000000000000     -4.137898499300000      0.000000000000000
Pt      0.000000000000000     -1.928144733700000      1.928144733700000
Pt      1.910253251100000     -3.934162821500000      1.910253251100000
Pt      1.928144733700000     -1.928144733700000      0.000000000000000
Pt      0.000000000000000     -3.807710938600000      3.807710938600000
Pt      1.910253251100000     -1.910253251100000      3.934162821500000
Pt      0.000000000000000      0.000000000000000     -4.137898499300000
Pt      0.000000000000000      1.928144733700000     -1.928144733700000
Pt      1.928144733700000      0.000000000000000     -1.928144733700000
Pt      1.910253251100000      1.910253251100000     -3.934162821500000
Pt      0.000000000000000      0.000000000000000      0.000000000000000
Pt      0.000000000000000      1.928144733700000      1.928144733700000
Pt      1.928144733700000      0.000000000000000      1.928144733700000
Pt      1.928144733700000      1.928144733700000      0.000000000000000
Pt      0.000000000000000      0.000000000000000      4.137898499300000
Pt      1.910253251100000      1.910253251100000      3.934162821500000
Pt      0.000000000000000      3.807710938600000     -3.807710938600000
Pt      1.910253251100000      3.934162821500000     -1.910253251100000
Pt      0.000000000000000      4.137898499300000      0.000000000000000
Pt      1.910253251100000      3.934162821500000      1.910253251100000
Pt      0.000000000000000      3.807710938600000      3.807710938600000
Pt      3.934162821500000     -1.910253251100000     -1.910253251100000
Pt      3.807710938600000     -3.807710938600000      0.000000000000000
Pt      3.934162821500000     -1.910253251100000      1.910253251100000
Pt      3.807710938600000      0.000000000000000     -3.807710938600000
Pt      3.934162821500000      1.910253251100000     -1.910253251100000
Pt      4.137898499300000      0.000000000000000      0.000000000000000
Pt      3.934162821500000      1.910253251100000      1.910253251100000
Pt      3.807710938600000      0.000000000000000      3.807710938600000
Pt      3.807710938600000      3.807710938600000      0.000000000000000
