117

Pt     -5.794188408074969     -3.845190805358783      0.000000000000000
Pt     -3.845190805358783     -5.794188408074969      0.000000000000000
Pt     -4.043879405635682     -4.043879405635682     -2.118155602951930
Pt     -4.043879405635682     -4.043879405635682      2.118155602951930
Pt     -5.794188408074969      0.000000000000000     -3.845190805358783
Pt     -4.043879405635682     -2.118155602951930     -4.043879405635682
Pt     -3.845190805358783      0.000000000000000     -5.794188408074969
Pt     -5.847210608148863     -1.951371402719495     -1.951371402719495
Pt     -5.925211608257568      0.000000000000000      0.000000000000000
Pt     -3.886108605415807     -1.971961202748189      0.000000000000000
Pt     -3.886108605415807      0.000000000000000     -1.971961202748189
Pt     -5.847210608148863     -1.951371402719495      1.951371402719495
Pt     -5.794188408074969      0.000000000000000      3.845190805358783
Pt     -4.043879405635682     -2.118155602951930      4.043879405635682
Pt     -3.886108605415807      0.000000000000000      1.971961202748189
Pt     -3.845190805358783      0.000000000000000      5.794188408074969
Pt     -4.043879405635682      2.118155602951930     -4.043879405635682
Pt     -5.847210608148863      1.951371402719495     -1.951371402719495
Pt     -5.794188408074969      3.845190805358783      0.000000000000000
Pt     -3.886108605415807      1.971961202748189      0.000000000000000
Pt     -4.043879405635682      4.043879405635682     -2.118155602951930
Pt     -5.847210608148863      1.951371402719495      1.951371402719495
Pt     -4.043879405635682      2.118155602951930      4.043879405635682
Pt     -4.043879405635682      4.043879405635682      2.118155602951930
Pt     -3.845190805358783      5.794188408074969      0.000000000000000
Pt     -2.118155602951930     -4.043879405635682     -4.043879405635682
Pt      0.000000000000000     -5.794188408074969     -3.845190805358783
Pt      0.000000000000000     -3.845190805358783     -5.794188408074969
Pt     -1.951371402719495     -5.847210608148863     -1.951371402719495
Pt     -1.971961202748189     -3.886108605415807      0.000000000000000
Pt      0.000000000000000     -5.925211608257568      0.000000000000000
Pt      0.000000000000000     -3.886108605415807     -1.971961202748189
Pt     -1.951371402719495     -5.847210608148863      1.951371402719495
Pt     -2.118155602951930     -4.043879405635682      4.043879405635682
Pt      0.000000000000000     -5.794188408074969      3.845190805358783
Pt      0.000000000000000     -3.886108605415807      1.971961202748189
Pt      0.000000000000000     -3.845190805358783      5.794188408074969
Pt     -1.951371402719495     -1.951371402719495     -5.847210608148863
Pt     -1.971961202748189      0.000000000000000     -3.886108605415807
Pt      0.000000000000000     -1.971961202748189     -3.886108605415807
Pt      0.000000000000000      0.000000000000000     -5.925211608257568
Pt     -2.021850602817717     -2.021850602817717     -2.021850602817717
Pt     -1.967182802741530      0.000000000000000      0.000000000000000
Pt      0.000000000000000     -1.967182802741530      0.000000000000000
Pt      0.000000000000000      0.000000000000000     -1.967182802741530
Pt     -2.021850602817717     -2.021850602817717      2.021850602817717
Pt     -1.971961202748189      0.000000000000000      3.886108605415807
Pt      0.000000000000000     -1.971961202748189      3.886108605415807
Pt      0.000000000000000      0.000000000000000      1.967182802741530
Pt     -1.951371402719495     -1.951371402719495      5.847210608148863
Pt      0.000000000000000      0.000000000000000      5.925211608257568
Pt     -1.951371402719495      1.951371402719495     -5.847210608148863
Pt     -2.118155602951930      4.043879405635682     -4.043879405635682
Pt      0.000000000000000      1.971961202748189     -3.886108605415807
Pt      0.000000000000000      3.845190805358783     -5.794188408074969
Pt     -2.021850602817717      2.021850602817717     -2.021850602817717
Pt     -1.971961202748189      3.886108605415807      0.000000000000000
Pt      0.000000000000000      1.967182802741530      0.000000000000000
Pt      0.000000000000000      3.886108605415807     -1.971961202748189
Pt     -2.021850602817717      2.021850602817717      2.021850602817717
Pt     -2.118155602951930      4.043879405635682      4.043879405635682
Pt      0.000000000000000      1.971961202748189      3.886108605415807
Pt      0.000000000000000      3.886108605415807      1.971961202748189
Pt     -1.951371402719495      1.951371402719495      5.847210608148863
Pt      0.000000000000000      3.845190805358783      5.794188408074969
Pt      0.000000000000000      5.794188408074969     -3.845190805358783
Pt     -1.951371402719495      5.847210608148863     -1.951371402719495
Pt      0.000000000000000      5.925211608257568      0.000000000000000
Pt     -1.951371402719495      5.847210608148863      1.951371402719495
Pt      0.000000000000000      5.794188408074969      3.845190805358783
Pt      2.118155602951930     -4.043879405635682     -4.043879405635682
Pt      1.951371402719495     -5.847210608148863     -1.951371402719495
Pt      1.971961202748189     -3.886108605415807      0.000000000000000
Pt      3.845190805358783     -5.794188408074969      0.000000000000000
Pt      4.043879405635682     -4.043879405635682     -2.118155602951930
Pt      1.951371402719495     -5.847210608148863      1.951371402719495
Pt      2.118155602951930     -4.043879405635682      4.043879405635682
Pt      4.043879405635682     -4.043879405635682      2.118155602951930
Pt      1.951371402719495     -1.951371402719495     -5.847210608148863
Pt      1.971961202748189      0.000000000000000     -3.886108605415807
Pt      4.043879405635682     -2.118155602951930     -4.043879405635682
Pt      3.845190805358783      0.000000000000000     -5.794188408074969
Pt      2.021850602817717     -2.021850602817717     -2.021850602817717
Pt      1.967182802741530      0.000000000000000      0.000000000000000
Pt      3.886108605415807     -1.971961202748189      0.000000000000000
Pt      3.886108605415807      0.000000000000000     -1.971961202748189
Pt      2.021850602817717     -2.021850602817717      2.021850602817717
Pt      1.971961202748189      0.000000000000000      3.886108605415807
Pt      4.043879405635682     -2.118155602951930      4.043879405635682
Pt      3.886108605415807      0.000000000000000      1.971961202748189
Pt      1.951371402719495     -1.951371402719495      5.847210608148863
Pt      3.845190805358783      0.000000000000000      5.794188408074969
Pt      1.951371402719495      1.951371402719495     -5.847210608148863
Pt      2.118155602951930      4.043879405635682     -4.043879405635682
Pt      4.043879405635682      2.118155602951930     -4.043879405635682
Pt      2.021850602817717      2.021850602817717     -2.021850602817717
Pt      1.971961202748189      3.886108605415807      0.000000000000000
Pt      3.886108605415807      1.971961202748189      0.000000000000000
Pt      4.043879405635682      4.043879405635682     -2.118155602951930
Pt      2.021850602817717      2.021850602817717      2.021850602817717
Pt      2.118155602951930      4.043879405635682      4.043879405635682
Pt      4.043879405635682      2.118155602951930      4.043879405635682
Pt      4.043879405635682      4.043879405635682      2.118155602951930
Pt      1.951371402719495      1.951371402719495      5.847210608148863
Pt      1.951371402719495      5.847210608148863     -1.951371402719495
Pt      3.845190805358783      5.794188408074969      0.000000000000000
Pt      1.951371402719495      5.847210608148863      1.951371402719495
Pt      5.794188408074969     -3.845190805358783      0.000000000000000
Pt      5.794188408074969      0.000000000000000     -3.845190805358783
Pt      5.847210608148863     -1.951371402719495     -1.951371402719495
Pt      5.925211608257568      0.000000000000000      0.000000000000000
Pt      5.847210608148863     -1.951371402719495      1.951371402719495
Pt      5.794188408074969      0.000000000000000      3.845190805358783
Pt      5.847210608148863      1.951371402719495     -1.951371402719495
Pt      5.794188408074969      3.845190805358783      0.000000000000000
Pt      5.847210608148863      1.951371402719495      1.951371402719495
H      -7.411185268000001     -2.581444120000000     -2.581444120000000
